/*--------------------------------*- C++ -*----------------------------------*\
| =========                 |                                                 |
| \\      /  F ield         | foam-extend: Open Source CFD                    |
|  \\    /   O peration     | Version:     4.0                                |
|   \\  /    A nd           | Web:         http://www.foam-extend.org         |
|    \\/     M anipulation  |                                                 |
\*---------------------------------------------------------------------------*/
FoamFile
{
    version     2.0;
    format      ascii;
    class       polyBoundaryMesh;
    location    "constant/polyMesh";
    object      boundary;
}
// * * * * * * * * * * * * * * * * * * * * * * * * * * * * * * * * * * * * * //

6
(
    top
    {
        type            patch;
        nFaces          0;
        startFace       3392;
    }
    bottom
    {
        type            patch;
        nFaces          30;
        startFace       3392;
    }
    wall
    {
        type            patch;
        nFaces          58;
        startFace       3422;
    }
    frontAndBack
    {
        type            empty;
        nFaces          3480;
        startFace       3480;
    }
    procBoundary1to0
    {
        type            processor;
        nFaces          58;
        startFace       6960;
        myProcNo        1;
        neighbProcNo    0;
    }
    procBoundary1to3
    {
        type            processor;
        nFaces          30;
        startFace       7018;
        myProcNo        1;
        neighbProcNo    3;
    }
)


// ************************************************************************* //
